
     RDKit          3D

 24 25  0  0  0  0  0  0  0  0999 V2000
    4.9479    1.7809   17.0071 H   0  0  0  0  0  0  0  0  0  0  0  0
    5.4134    1.2817   17.8548 C   0  0  0  0  0  0  0  0  0  0  0  0
    6.5676    0.6606   17.5954 N   0  0  0  0  0  0  0  0  0  0  0  0
    7.1628    0.0484   18.6178 C   0  0  0  0  0  0  0  0  0  0  0  0
    8.1225   -0.4086   18.3931 H   0  0  0  0  0  0  0  0  0  0  0  0
    6.6409   -0.0185   19.9128 C   0  0  0  0  0  0  0  0  0  0  0  0
    7.3240   -0.7301   20.9906 C   0  0  0  0  0  0  0  0  0  0  0  0
    6.5971   -1.4700   21.7948 N   0  0  0  0  0  0  0  0  0  0  0  0
    7.2014   -2.1937   22.7754 C   0  0  0  0  0  0  0  0  0  0  0  0
    6.1727   -3.1702   23.8544 S   0  0  0  0  0  0  0  0  0  0  0  0
    5.8207   -1.8724   25.0756 C   0  0  0  0  0  0  0  0  0  0  0  0
    5.3437   -1.0022   24.6229 H   0  0  0  0  0  0  0  0  0  0  0  0
    5.1531   -2.3039   25.8246 H   0  0  0  0  0  0  0  0  0  0  0  0
    6.7369   -1.5214   25.5557 H   0  0  0  0  0  0  0  0  0  0  0  0
    8.5360   -2.1164   22.9951 C   0  0  0  0  0  0  0  0  0  0  0  0
    9.0550   -2.6268   23.7977 H   0  0  0  0  0  0  0  0  0  0  0  0
    9.2888   -1.2999   22.1968 N   0  0  0  0  0  0  0  0  0  0  0  0
   10.2803   -1.1836   22.3561 H   0  0  0  0  0  0  0  0  0  0  0  0
    8.7826   -0.5448   21.1500 C   0  0  0  0  0  0  0  0  0  0  0  0
    9.5276    0.1732   20.5022 O   0  0  0  0  0  0  0  0  0  0  0  0
    5.4287    0.6249   20.1553 C   0  0  0  0  0  0  0  0  0  0  0  0
    5.0019    0.6141   21.1560 H   0  0  0  0  0  0  0  0  0  0  0  0
    4.8170    1.3005   19.1118 C   0  0  0  0  0  0  0  0  0  0  0  0
    3.8883    1.8359   19.2637 H   0  0  0  0  0  0  0  0  0  0  0  0
  1  2  1  0
  2  3  2  0
  3  4  1  0
  4  5  1  0
  4  6  2  0
  6  7  1  0
  7  8  2  0
  8  9  1  0
  9 10  1  0
 10 11  1  0
 11 12  1  0
 11 13  1  0
 11 14  1  0
  9 15  2  0
 15 16  1  0
 15 17  1  0
 17 18  1  0
 17 19  1  0
 19 20  2  0
  6 21  1  0
 21 22  1  0
 21 23  2  0
 23 24  1  0
 23  2  1  0
 19  7  1  0
M  END
>  <cnnaffinity>  (1) 
-5.00511

>  <filename>  (1) 
CSc1c[nH]c(=O)c(-c2cccnc2)n1

$$$$
