
     RDKit          3D

 31 33  0  0  0  0  0  0  0  0999 V2000
    4.9184    1.7768   17.0036 H   0  0  0  0  0  0  0  0  0  0  0  0
    5.4030    1.2874   17.8429 C   0  0  0  0  0  0  0  0  0  0  0  0
    6.5598    0.6761   17.5750 N   0  0  0  0  0  0  0  0  0  0  0  0
    7.1679    0.0750   18.5981 C   0  0  0  0  0  0  0  0  0  0  0  0
    8.1144   -0.4134   18.3695 H   0  0  0  0  0  0  0  0  0  0  0  0
    6.6728    0.0321   19.8956 C   0  0  0  0  0  0  0  0  0  0  0  0
    7.3679   -0.7315   20.9879 C   0  0  0  0  0  0  0  0  0  0  0  0
    8.4298   -0.8427   20.7272 H   0  0  0  0  0  0  0  0  0  0  0  0
    7.3164   -0.1408   21.9114 H   0  0  0  0  0  0  0  0  0  0  0  0
    6.7552   -2.0880   21.2128 C   0  0  0  0  0  0  0  0  0  0  0  0
    6.2869   -2.9941   20.2439 C   0  0  0  0  0  0  0  0  0  0  0  0
    6.3165   -2.8604   19.1746 H   0  0  0  0  0  0  0  0  0  0  0  0
    5.7711   -4.0936   20.7711 N   0  0  0  0  0  0  0  0  0  0  0  0
    5.8947   -3.8878   22.0926 N   0  0  0  0  0  0  0  0  0  0  0  0
    5.6092   -4.6082   22.7346 H   0  0  0  0  0  0  0  0  0  0  0  0
    6.4976   -2.7169   22.4135 C   0  0  0  0  0  0  0  0  0  0  0  0
    6.7812   -2.2814   23.7843 C   0  0  0  0  0  0  0  0  0  0  0  0
    7.9970   -1.6602   24.0828 C   0  0  0  0  0  0  0  0  0  0  0  0
    8.7411   -1.5238   23.3030 H   0  0  0  0  0  0  0  0  0  0  0  0
    8.2698   -1.2376   25.3771 C   0  0  0  0  0  0  0  0  0  0  0  0
    9.2162   -0.7581   25.5965 H   0  0  0  0  0  0  0  0  0  0  0  0
    7.3401   -1.4206   26.3935 C   0  0  0  0  0  0  0  0  0  0  0  0
    7.5334   -1.0994   27.4089 H   0  0  0  0  0  0  0  0  0  0  0  0
    6.1409   -2.0408   26.0748 C   0  0  0  0  0  0  0  0  0  0  0  0
    5.2350   -2.2354   27.0484 F   0  0  0  0  0  0  0  0  0  0  0  0
    5.8428   -2.4787   24.7985 C   0  0  0  0  0  0  0  0  0  0  0  0
    4.8822   -2.9445   24.5923 H   0  0  0  0  0  0  0  0  0  0  0  0
    5.4530    0.6564   20.1434 C   0  0  0  0  0  0  0  0  0  0  0  0
    5.0216    0.6262   21.1431 H   0  0  0  0  0  0  0  0  0  0  0  0
    4.8096    1.3077   19.1006 C   0  0  0  0  0  0  0  0  0  0  0  0
    3.8747    1.8395   19.2639 H   0  0  0  0  0  0  0  0  0  0  0  0
  1  2  1  0
  2  3  2  0
  3  4  1  0
  4  5  1  0
  4  6  2  0
  6  7  1  0
  7  8  1  0
  7  9  1  0
  7 10  1  0
 10 11  1  0
 11 12  1  0
 11 13  2  0
 13 14  1  0
 14 15  1  0
 14 16  1  0
 16 17  1  0
 17 18  2  0
 18 19  1  0
 18 20  1  0
 20 21  1  0
 20 22  2  0
 22 23  1  0
 22 24  1  0
 24 25  1  0
 24 26  2  0
 26 27  1  0
  6 28  1  0
 28 29  1  0
 28 30  2  0
 30 31  1  0
 30  2  1  0
 16 10  2  0
 26 17  1  0
M  END
>  <cnnaffinity>  (1) 
-4.82995

>  <filename>  (1) 
Fc1cccc(-c2[nH]ncc2Cc2cccnc2)c1

$$$$
