
     RDKit          3D

 29 31  0  0  0  0  0  0  0  0999 V2000
    4.9702    1.7926   16.9484 H   0  0  0  0  0  0  0  0  0  0  0  0
    5.4311    1.2870   17.7952 C   0  0  0  0  0  0  0  0  0  0  0  0
    6.5793    0.6457   17.5514 N   0  0  0  0  0  0  0  0  0  0  0  0
    7.1650    0.0288   18.5709 C   0  0  0  0  0  0  0  0  0  0  0  0
    8.0987   -0.4843   18.3555 H   0  0  0  0  0  0  0  0  0  0  0  0
    6.6507    0.0293   19.8737 C   0  0  0  0  0  0  0  0  0  0  0  0
    7.3074   -0.6463   20.9152 N   0  0  0  0  0  0  0  0  0  0  0  0
    7.4068   -0.2716   22.2586 C   0  0  0  0  0  0  0  0  0  0  0  0
    6.9111    0.7295   22.7448 O   0  0  0  0  0  0  0  0  0  0  0  0
    8.2411   -1.3028   22.8732 C   0  0  0  0  0  0  0  0  0  0  0  0
    8.5993   -1.3748   24.3217 C   0  0  2  0  0  0  0  0  0  0  0  0
    8.5521   -0.3488   24.7097 H   0  0  0  0  0  0  0  0  0  0  0  0
    9.9293   -1.9389   24.5154 N   0  0  0  0  0  0  0  0  0  0  0  0
    9.7408   -3.0593   25.0957 C   0  0  0  0  0  0  0  0  0  0  0  0
   10.6773   -4.0340   25.3229 N   0  0  0  0  0  0  0  0  0  0  0  0
   10.5105   -4.5454   26.1799 H   0  0  0  0  0  0  0  0  0  0  0  0
   11.6336   -3.7294   25.2123 H   0  0  0  0  0  0  0  0  0  0  0  0
    8.5028   -3.3868   25.5350 O   0  0  0  0  0  0  0  0  0  0  0  0
    7.6547   -2.2948   25.1553 C   0  0  0  0  0  0  0  0  0  0  0  0
    7.2808   -1.7947   26.0535 H   0  0  0  0  0  0  0  0  0  0  0  0
    6.8011   -2.6808   24.5858 H   0  0  0  0  0  0  0  0  0  0  0  0
    8.6054   -2.1460   21.8896 C   0  0  0  0  0  0  0  0  0  0  0  0
    9.2131   -3.0303   21.9557 H   0  0  0  0  0  0  0  0  0  0  0  0
    8.1649   -1.7102   20.6484 N   0  0  0  0  0  0  0  0  0  0  0  0
    7.7452   -2.4031   20.0341 H   0  0  0  0  0  0  0  0  0  0  0  0
    5.4580    0.7007   20.1199 C   0  0  0  0  0  0  0  0  0  0  0  0
    5.0563    0.7349   21.1278 H   0  0  0  0  0  0  0  0  0  0  0  0
    4.8298    1.3223   19.0505 C   0  0  0  0  0  0  0  0  0  0  0  0
    3.8891    1.8462   19.1919 H   0  0  0  0  0  0  0  0  0  0  0  0
  1  2  1  0
  2  3  2  0
  3  4  1  0
  4  5  1  0
  4  6  2  0
  6  7  1  0
  7  8  1  0
  8  9  2  0
  8 10  1  0
 10 11  1  0
 11 12  1  1
 11 13  1  0
 13 14  2  0
 14 15  1  0
 15 16  1  0
 15 17  1  0
 14 18  1  0
 18 19  1  0
 19 20  1  0
 19 21  1  0
 10 22  2  0
 22 23  1  0
 22 24  1  0
 24 25  1  0
  6 26  1  0
 26 27  1  0
 26 28  2  0
 28 29  1  0
 28  2  1  0
 24  7  1  0
 19 11  1  0
M  END
>  <cnnaffinity>  (1) 
-4.62271

>  <filename>  (1) 
NC1=N[C@@H](c2c[nH]n(-c3cccnc3)c2=O)CO1

$$$$
