
     RDKit          3D

 27 29  0  0  0  0  0  0  0  0999 V2000
    4.9198    1.7705   17.0105 H   0  0  0  0  0  0  0  0  0  0  0  0
    5.4093    1.2858   17.8528 C   0  0  0  0  0  0  0  0  0  0  0  0
    6.5683    0.6719   17.5931 N   0  0  0  0  0  0  0  0  0  0  0  0
    7.1707    0.0596   18.6143 C   0  0  0  0  0  0  0  0  0  0  0  0
    8.1175   -0.4209   18.3866 H   0  0  0  0  0  0  0  0  0  0  0  0
    6.6478   -0.0090   19.9117 C   0  0  0  0  0  0  0  0  0  0  0  0
    7.3059   -0.7457   21.0042 C   0  0  0  0  0  0  0  0  0  0  0  0
    6.5754   -1.4946   21.7938 N   0  0  0  0  0  0  0  0  0  0  0  0
    7.1899   -2.1896   22.7990 C   0  0  0  0  0  0  0  0  0  0  0  0
    6.3547   -3.0366   23.6667 C   0  0  0  0  0  0  0  0  0  0  0  0
    6.8055   -3.7506   24.6791 N   0  0  0  0  0  0  0  0  0  0  0  0
    5.6999   -4.3718   25.1996 C   0  0  0  0  0  0  0  0  0  0  0  0
    5.7475   -5.0374   26.0505 H   0  0  0  0  0  0  0  0  0  0  0  0
    4.5747   -4.0385   24.4973 C   0  0  0  0  0  0  0  0  0  0  0  0
    3.5408   -4.3282   24.6255 H   0  0  0  0  0  0  0  0  0  0  0  0
    5.0121   -3.1961   23.5097 N   0  0  0  0  0  0  0  0  0  0  0  0
    4.4555   -2.7039   22.8290 H   0  0  0  0  0  0  0  0  0  0  0  0
    8.5325   -2.1053   23.0270 C   0  0  0  0  0  0  0  0  0  0  0  0
    9.0397   -2.6388   23.8268 H   0  0  0  0  0  0  0  0  0  0  0  0
    9.2869   -1.3084   22.2184 N   0  0  0  0  0  0  0  0  0  0  0  0
   10.2851   -1.2080   22.3689 H   0  0  0  0  0  0  0  0  0  0  0  0
    8.7687   -0.5577   21.1650 C   0  0  0  0  0  0  0  0  0  0  0  0
    9.4903    0.1679   20.5004 O   0  0  0  0  0  0  0  0  0  0  0  0
    5.4402    0.6427   20.1505 C   0  0  0  0  0  0  0  0  0  0  0  0
    5.0109    0.6242   21.1493 H   0  0  0  0  0  0  0  0  0  0  0  0
    4.8124    1.3118   19.1103 C   0  0  0  0  0  0  0  0  0  0  0  0
    3.8758    1.8425   19.2685 H   0  0  0  0  0  0  0  0  0  0  0  0
  1  2  1  0
  2  3  2  0
  3  4  1  0
  4  5  1  0
  4  6  2  0
  6  7  1  0
  7  8  2  0
  8  9  1  0
  9 10  1  0
 10 11  2  0
 11 12  1  0
 12 13  1  0
 12 14  2  0
 14 15  1  0
 14 16  1  0
 16 17  1  0
  9 18  2  0
 18 19  1  0
 18 20  1  0
 20 21  1  0
 20 22  1  0
 22 23  2  0
  6 24  1  0
 24 25  1  0
 24 26  2  0
 26 27  1  0
 26  2  1  0
 22  7  1  0
 16 10  1  0
M  END
>  <cnnaffinity>  (1) 
-5.04513

>  <filename>  (1) 
O=c1[nH]cc(-c2ncc[nH]2)nc1-c1cccnc1

$$$$
