
     RDKit          3D

 28 30  0  0  0  0  0  0  0  0999 V2000
    4.1720   -5.1931   25.9257 H   0  0  0  0  0  0  0  0  0  0  0  0
    4.7970   -4.5865   25.2706 C   0  0  0  0  0  0  0  0  0  0  0  0
    4.1923   -4.0076   24.2340 N   0  0  0  0  0  0  0  0  0  0  0  0
    4.9685   -3.3054   23.4135 C   0  0  0  0  0  0  0  0  0  0  0  0
    4.4933   -2.9052   22.5194 H   0  0  0  0  0  0  0  0  0  0  0  0
    6.3301   -3.0942   23.6699 C   0  0  0  0  0  0  0  0  0  0  0  0
    7.1796   -2.2126   22.8192 C   0  0  0  0  0  0  0  0  0  0  0  0
    6.5723   -1.5088   21.8194 N   0  0  0  0  0  0  0  0  0  0  0  0
    7.2904   -0.7635   21.0190 C   0  0  0  0  0  0  0  0  0  0  0  0
    6.6201   -0.0420   19.9241 C   0  0  0  0  0  0  0  0  0  0  0  0
    7.1566    0.0320   18.6328 C   0  0  0  0  0  0  0  0  0  0  0  0
    8.1238   -0.4131   18.4112 H   0  0  0  0  0  0  0  0  0  0  0  0
    6.5689    0.6535   17.6112 N   0  0  0  0  0  0  0  0  0  0  0  0
    5.4155    1.2792   17.8578 C   0  0  0  0  0  0  0  0  0  0  0  0
    4.9629    1.7874   17.0060 H   0  0  0  0  0  0  0  0  0  0  0  0
    4.8117    1.2976   19.1117 C   0  0  0  0  0  0  0  0  0  0  0  0
    3.8856    1.8417   19.2578 H   0  0  0  0  0  0  0  0  0  0  0  0
    5.4131    0.6143   20.1583 C   0  0  0  0  0  0  0  0  0  0  0  0
    4.9813    0.6054   21.1573 H   0  0  0  0  0  0  0  0  0  0  0  0
    8.7488   -0.5919   21.1827 C   0  0  0  0  0  0  0  0  0  0  0  0
    9.5018    0.1143   20.5327 O   0  0  0  0  0  0  0  0  0  0  0  0
    9.2585   -1.3381   22.2318 N   0  0  0  0  0  0  0  0  0  0  0  0
   10.2519   -1.2098   22.3609 H   0  0  0  0  0  0  0  0  0  0  0  0
    8.5206   -2.1331   23.0492 C   0  0  0  0  0  0  0  0  0  0  0  0
    9.0515   -2.6500   23.8379 H   0  0  0  0  0  0  0  0  0  0  0  0
    6.9367   -3.7128   24.6911 N   0  0  0  0  0  0  0  0  0  0  0  0
    6.1700   -4.4721   25.4729 C   0  0  0  0  0  0  0  0  0  0  0  0
    6.6606   -5.0257   26.2729 H   0  0  0  0  0  0  0  0  0  0  0  0
  1  2  1  0
  2  3  2  0
  3  4  1  0
  4  5  1  0
  4  6  2  0
  6  7  1  0
  7  8  1  0
  8  9  2  0
  9 10  1  0
 10 11  2  0
 11 12  1  0
 11 13  1  0
 13 14  2  0
 14 15  1  0
 14 16  1  0
 16 17  1  0
 16 18  2  0
 18 19  1  0
  9 20  1  0
 20 21  2  0
 20 22  1  0
 22 23  1  0
 22 24  1  0
 24 25  1  0
  6 26  1  0
 26 27  2  0
 27 28  1  0
 27  2  1  0
 24  7  2  0
 18 10  1  0
M  END
>  <cnnaffinity>  (1) 
-5.09808

>  <filename>  (1) 
O=c1[nH]cc(-c2cnccn2)nc1-c1cccnc1

$$$$
