
     RDKit          3D

 21 22  0  0  0  0  0  0  0  0999 V2000
    4.8603   -2.1751   20.7498 H   0  0  0  0  0  0  0  0  0  0  0  0
    5.8582   -2.9130   21.2610 S   0  0  0  0  0  0  0  0  0  0  0  0
    6.7400   -1.4900   21.9551 C   0  0  1  0  0  0  0  0  0  0  0  0
    6.0647   -0.9067   22.5872 H   0  0  0  0  0  0  0  0  0  0  0  0
    7.9037   -1.9708   22.8241 C   0  0  0  0  0  0  0  0  0  0  0  0
    7.8373   -2.6496   23.8139 O   0  0  0  0  0  0  0  0  0  0  0  0
    9.0352   -1.4421   22.2387 N   0  0  0  0  0  0  0  0  0  0  0  0
    9.9625   -1.5684   22.6162 H   0  0  0  0  0  0  0  0  0  0  0  0
    8.7743   -0.6425   21.1281 C   0  0  0  0  0  0  0  0  0  0  0  0
    9.5744   -0.0299   20.4635 O   0  0  0  0  0  0  0  0  0  0  0  0
    7.3900   -0.6744   20.9488 N   0  0  0  0  0  0  0  0  0  0  0  0
    6.6878    0.0066   19.9230 C   0  0  0  0  0  0  0  0  0  0  0  0
    7.1859    0.0589   18.6154 C   0  0  0  0  0  0  0  0  0  0  0  0
    8.1266   -0.4305   18.3873 H   0  0  0  0  0  0  0  0  0  0  0  0
    6.5677    0.6684   17.6033 N   0  0  0  0  0  0  0  0  0  0  0  0
    5.4073    1.2846   17.8563 C   0  0  0  0  0  0  0  0  0  0  0  0
    4.9160    1.7694   17.0117 H   0  0  0  0  0  0  0  0  0  0  0  0
    4.8202    1.3008   19.1178 C   0  0  0  0  0  0  0  0  0  0  0  0
    3.8810    1.8367   19.2742 H   0  0  0  0  0  0  0  0  0  0  0  0
    5.4621    0.6357   20.1607 C   0  0  0  0  0  0  0  0  0  0  0  0
    5.0134    0.6302   21.1511 H   0  0  0  0  0  0  0  0  0  0  0  0
  1  2  1  0
  2  3  1  0
  3  4  1  1
  3  5  1  0
  5  6  2  0
  5  7  1  0
  7  8  1  0
  7  9  1  0
  9 10  2  0
  9 11  1  0
 11 12  1  0
 12 13  2  0
 13 14  1  0
 13 15  1  0
 15 16  2  0
 16 17  1  0
 16 18  1  0
 18 19  1  0
 18 20  2  0
 20 21  1  0
 11  3  1  0
 20 12  1  0
M  END
>  <cnnaffinity>  (1) 
-4.27534

>  <filename>  (1) 
O=C1NC(=O)N(c2cccnc2)[C@H]1S

$$$$
