
     RDKit          3D

 31 32  0  0  0  0  0  0  0  0999 V2000
    6.7180   -0.7081   27.5821 H   0  0  0  0  0  0  0  0  0  0  0  0
    7.2057   -0.2012   26.9238 O   0  0  0  0  0  0  0  0  0  0  0  0
    7.5483   -1.0637   25.8499 C   0  0  0  0  0  0  0  0  0  0  0  0
    8.1148   -1.9342   26.2221 H   0  0  0  0  0  0  0  0  0  0  0  0
    6.3314   -1.5723   25.0700 C   0  0  0  0  0  0  0  0  0  0  0  0
    5.6865   -2.1930   25.7056 H   0  0  0  0  0  0  0  0  0  0  0  0
    5.7298   -0.7149   24.7419 H   0  0  0  0  0  0  0  0  0  0  0  0
    6.7772   -2.3727   23.8387 C   0  0  0  0  0  0  0  0  0  0  0  0
    5.9171   -2.7007   23.2478 H   0  0  0  0  0  0  0  0  0  0  0  0
    7.3101   -3.2730   24.1688 H   0  0  0  0  0  0  0  0  0  0  0  0
    7.6790   -1.6372   22.9367 N   0  0  0  0  0  0  0  0  0  0  0  0
    6.9450   -0.6408   22.2154 N   0  0  0  0  0  0  0  0  0  0  0  0
    7.0651    0.2482   22.7158 H   0  0  0  0  0  0  0  0  0  0  0  0
    7.5228   -0.4901   20.9255 N   0  0  0  0  0  0  0  0  0  0  0  0
    7.9459   -1.3776   20.6665 H   0  0  0  0  0  0  0  0  0  0  0  0
    6.6976    0.0408   19.9088 C   0  0  0  0  0  0  0  0  0  0  0  0
    7.1812    0.0463   18.5922 C   0  0  0  0  0  0  0  0  0  0  0  0
    8.1322   -0.4387   18.3611 H   0  0  0  0  0  0  0  0  0  0  0  0
    6.5713    0.6469   17.5767 N   0  0  0  0  0  0  0  0  0  0  0  0
    5.4173    1.2767   17.8294 C   0  0  0  0  0  0  0  0  0  0  0  0
    4.9559    1.7972   16.9949 H   0  0  0  0  0  0  0  0  0  0  0  0
    4.8231    1.2798   19.0835 C   0  0  0  0  0  0  0  0  0  0  0  0
    3.8869    1.8074   19.2445 H   0  0  0  0  0  0  0  0  0  0  0  0
    5.4572    0.6351   20.1371 C   0  0  0  0  0  0  0  0  0  0  0  0
    5.0065    0.6063   21.1263 H   0  0  0  0  0  0  0  0  0  0  0  0
    8.8250   -1.0597   23.6656 C   0  0  0  0  0  0  0  0  0  0  0  0
    9.4577   -1.9040   23.9578 H   0  0  0  0  0  0  0  0  0  0  0  0
    9.4105   -0.4437   22.9735 H   0  0  0  0  0  0  0  0  0  0  0  0
    8.4384   -0.2594   24.9108 C   0  0  0  0  0  0  0  0  0  0  0  0
    7.8956    0.6493   24.6194 H   0  0  0  0  0  0  0  0  0  0  0  0
    9.3390    0.0675   25.4390 H   0  0  0  0  0  0  0  0  0  0  0  0
  1  2  1  0
  2  3  1  0
  3  4  1  0
  3  5  1  0
  5  6  1  0
  5  7  1  0
  5  8  1  0
  8  9  1  0
  8 10  1  0
  8 11  1  0
 11 12  1  0
 12 13  1  0
 12 14  1  0
 14 15  1  0
 14 16  1  0
 16 17  2  0
 17 18  1  0
 17 19  1  0
 19 20  2  0
 20 21  1  0
 20 22  1  0
 22 23  1  0
 22 24  2  0
 24 25  1  0
 11 26  1  0
 26 27  1  0
 26 28  1  0
 26 29  1  0
 29 30  1  0
 29 31  1  0
 29  3  1  0
 24 16  1  0
M  END
>  <cnnaffinity>  (1) 
-3.95286

>  <filename>  (1) 
OC1CCN(NNc2cccnc2)CC1

$$$$
